
[General]

include ../Parameters/Castalia.ini

sim-time-limit = 200s

SN.field_x = 100		# meters
SN.field_y = 100		# meters

SN.numNodes =15
SN.deployment = "uniform"

include ../Parameters/PhysicalProcess/node0_asssignedValue40.ini

SN.node[*].Communication.Radio.RadioParametersFile = "../Parameters/Radio/CC2420.txt"
SN.node[*].Communication.MACProtocolName = "TunableMAC"
SN.node[*].ApplicationName = "MyProject"

SN.node[*].Communication.MAC.listenInterval = 10
SN.node[*].Communication.MAC.dutyCycle = 0.1
SN.node[*].Communication.MAC.beaconIntervalFraction = 1.0

SN.node[*].Communication.Radio.TxOutputPower = "0dBm"